examples/feeders/RITQ1305/DU_1_CodCondutores_391_ITQ_RITQ1305.dss
! DU_1_CodCondutores_391_ITQ_RITQ1305
New "Linecode.1/0AC3BT1_1" nphases=1 basefreq=60 r1=0.613 x1=0.93854862 units=km normamps=200.0
New "Linecode.1/0AC3BT1_2" nphases=2 basefreq=60 r1=0.613 x1=0.93854862 units=km normamps=200.0
New "Linecode.1/0AC3BT1_3" nphases=3 basefreq=60 r1=0.613 x1=0.93854862 units=km normamps=200.0
New "Linecode.1/0AC3BT1_4" nphases=4 basefreq=60 r1=0.613 x1=0.93854862 units=km normamps=200.0
New "Linecode.1/0ANA2MT4ANA1_1" nphases=1 basefreq=60 r1=0.613 x1=0.30713266 units=km normamps=200.0
New "Linecode.1/0ANA2MT4ANA1_2" nphases=2 basefreq=60 r1=0.613 x1=0.30713266 units=km normamps=200.0
New "Linecode.1/0ANA2MT4ANA1_3" nphases=3 basefreq=60 r1=0.613 x1=0.30713266 units=km normamps=200.0
New "Linecode.1/0ANA2MT4ANA1_4" nphases=4 basefreq=60 r1=0.613 x1=0.30713266 units=km normamps=200.0
New "Linecode.1/0ANA3MT1_1" nphases=1 basefreq=60 r1=0.613 x1=0.93854862 units=km normamps=200.0
New "Linecode.1/0ANA3MT1_2" nphases=2 basefreq=60 r1=0.613 x1=0.93854862 units=km normamps=200.0
New "Linecode.1/0ANA3MT1_3" nphases=3 basefreq=60 r1=0.613 x1=0.93854862 units=km normamps=200.0
New "Linecode.1/0ANA3MT1_4" nphases=4 basefreq=60 r1=0.613 x1=0.93854862 units=km normamps=200.0
New "Linecode.1/0AN1BT1_1" nphases=1 basefreq=60 r1=0.613 x1=0.93854862 units=km normamps=200.0
New "Linecode.1/0AN1BT1_2" nphases=2 basefreq=60 r1=0.613 x1=0.93854862 units=km normamps=200.0
New "Linecode.1/0AN1BT1_3" nphases=3 basefreq=60 r1=0.613 x1=0.93854862 units=km normamps=200.0
New "Linecode.1/0AN1BT1_4" nphases=4 basefreq=60 r1=0.613 x1=0.93854862 units=km normamps=200.0
New "Linecode.1/0AN2BT6ANA1_1" nphases=1 basefreq=60 r1=0.613 x1=0.43827832 units=km normamps=200.0
New "Linecode.1/0AN2BT6ANA1_2" nphases=2 basefreq=60 r1=0.613 x1=0.43827832 units=km normamps=200.0
New "Linecode.1/0AN2BT6ANA1_3" nphases=3 basefreq=60 r1=0.613 x1=0.43827832 units=km normamps=200.0
New "Linecode.1/0AN2BT6ANA1_4" nphases=4 basefreq=60 r1=0.613 x1=0.43827832 units=km normamps=200.0
New "Linecode.NEUTRO336AN1_1" nphases=1 basefreq=60 r1=0.18980393 x1=0.39037171 units=km normamps=430.0
New "Linecode.NEUTRO336AN1_2" nphases=2 basefreq=60 r1=0.18980393 x1=0.39037171 units=km normamps=430.0
New "Linecode.NEUTRO336AN1_3" nphases=3 basefreq=60 r1=0.18980393 x1=0.39037171 units=km normamps=430.0
New "Linecode.NEUTRO336AN1_4" nphases=4 basefreq=60 r1=0.18980393 x1=0.39037171 units=km normamps=430.0
New "Linecode.1/0AC1BT1/0AC1_1" nphases=1 basefreq=60 r1=0.613 x1=0.93854862 units=km normamps=200.0
New "Linecode.1/0AC1BT1/0AC1_2" nphases=2 basefreq=60 r1=0.613 x1=0.93854862 units=km normamps=200.0
New "Linecode.1/0AC1BT1/0AC1_3" nphases=3 basefreq=60 r1=0.613 x1=0.93854862 units=km normamps=200.0
New "Linecode.1/0AC1BT1/0AC1_4" nphases=4 basefreq=60 r1=0.613 x1=0.93854862 units=km normamps=200.0
New "Linecode.1/0AC3BT3/0AN1_1" nphases=1 basefreq=60 r1=0.613 x1=0.93854862 units=km normamps=200.0
New "Linecode.1/0AC3BT3/0AN1_2" nphases=2 basefreq=60 r1=0.613 x1=0.93854862 units=km normamps=200.0
New "Linecode.1/0AC3BT3/0AN1_3" nphases=3 basefreq=60 r1=0.613 x1=0.93854862 units=km normamps=200.0
New "Linecode.1/0AC3BT3/0AN1_4" nphases=4 basefreq=60 r1=0.613 x1=0.93854862 units=km normamps=200.0
New "Linecode.3X3535AX1BT3X3531_1" nphases=1 basefreq=60 r1=0.991 x1=0.34140888 units=km normamps=142.0
New "Linecode.3X3535AX1BT3X3531_2" nphases=2 basefreq=60 r1=0.991 x1=0.34140888 units=km normamps=142.0
New "Linecode.3X3535AX1BT3X3531_3" nphases=3 basefreq=60 r1=0.991 x1=0.34140888 units=km normamps=142.0
New "Linecode.3X3535AX1BT3X3531_4" nphases=4 basefreq=60 r1=0.991 x1=0.34140888 units=km normamps=142.0
New "Linecode.3X70CXMT3MT1_1" nphases=1 basefreq=60 r1=0.305 x1=0.1531 units=km normamps=219.0
New "Linecode.3X70CXMT3MT1_2" nphases=2 basefreq=60 r1=0.305 x1=0.1531 units=km normamps=219.0
New "Linecode.3X70CXMT3MT1_3" nphases=3 basefreq=60 r1=0.305 x1=0.1531 units=km normamps=219.0
New "Linecode.3X70CXMT3MT1_4" nphases=4 basefreq=60 r1=0.305 x1=0.1531 units=km normamps=219.0
New "Linecode.2/0CC3BT3/0AN1_1" nphases=1 basefreq=60 r1=0.308 x1=0.31469658 units=km normamps=300.0
New "Linecode.2/0CC3BT3/0AN1_2" nphases=2 basefreq=60 r1=0.308 x1=0.31469658 units=km normamps=300.0
New "Linecode.2/0CC3BT3/0AN1_3" nphases=3 basefreq=60 r1=0.308 x1=0.31469658 units=km normamps=300.0
New "Linecode.2/0CC3BT3/0AN1_4" nphases=4 basefreq=60 r1=0.308 x1=0.31469658 units=km normamps=300.0
New "Linecode.3X12070AX2BT1_1" nphases=1 basefreq=60 r1=0.289 x1=0.0932 units=km normamps=304.0
New "Linecode.3X12070AX2BT1_2" nphases=2 basefreq=60 r1=0.289 x1=0.0932 units=km normamps=304.0
New "Linecode.3X12070AX2BT1_3" nphases=3 basefreq=60 r1=0.289 x1=0.0932 units=km normamps=304.0
New "Linecode.3X12070AX2BT1_4" nphases=4 basefreq=60 r1=0.289 x1=0.0932 units=km normamps=304.0
New "Linecode.3X1616AX2BT3X1612_1" nphases=1 basefreq=60 r1=2.179 x1=0.1025 units=km normamps=68.0
New "Linecode.3X1616AX2BT3X1612_2" nphases=2 basefreq=60 r1=2.179 x1=0.1025 units=km normamps=68.0
New "Linecode.3X1616AX2BT3X1612_3" nphases=3 basefreq=60 r1=2.179 x1=0.1025 units=km normamps=68.0
New "Linecode.3X1616AX2BT3X1612_4" nphases=4 basefreq=60 r1=2.179 x1=0.1025 units=km normamps=68.0
New "Linecode.3X7070AX3BT3/0AN1_1" nphases=1 basefreq=60 r1=0.506 x1=0.0727 units=km normamps=216.0
New "Linecode.3X7070AX3BT3/0AN1_2" nphases=2 basefreq=60 r1=0.506 x1=0.0727 units=km normamps=216.0
New "Linecode.3X7070AX3BT3/0AN1_3" nphases=3 basefreq=60 r1=0.506 x1=0.0727 units=km normamps=216.0
New "Linecode.3X7070AX3BT3/0AN1_4" nphases=4 basefreq=60 r1=0.506 x1=0.0727 units=km normamps=216.0
New "Linecode.3X240CXMT3MT3X240C1_1" nphases=1 basefreq=60 r1=0.087 x1=2.45379996 units=km normamps=330.0
New "Linecode.3X240CXMT3MT3X240C1_2" nphases=2 basefreq=60 r1=0.087 x1=2.45379996 units=km normamps=330.0
New "Linecode.3X240CXMT3MT3X240C1_3" nphases=3 basefreq=60 r1=0.087 x1=2.45379996 units=km normamps=330.0
New "Linecode.3X240CXMT3MT3X240C1_4" nphases=4 basefreq=60 r1=0.087 x1=2.45379996 units=km normamps=330.0
New "Linecode.3BT3X7071_1" nphases=1 basefreq=60 r1=0.506 x1=0.0727 units=km normamps=216.0
New "Linecode.3BT3X7071_2" nphases=2 basefreq=60 r1=0.506 x1=0.0727 units=km normamps=216.0
New "Linecode.3BT3X7071_3" nphases=3 basefreq=60 r1=0.506 x1=0.0727 units=km normamps=216.0
New "Linecode.3BT3X7071_4" nphases=4 basefreq=60 r1=0.506 x1=0.0727 units=km normamps=216.0
New "Linecode.2X25AX2BT2X25AX1_1" nphases=1 basefreq=60 r1=1.369 x1=0.1025 units=km normamps=116.0
New "Linecode.2X25AX2BT2X25AX1_2" nphases=2 basefreq=60 r1=1.369 x1=0.1025 units=km normamps=116.0
New "Linecode.2X25AX2BT2X25AX1_3" nphases=3 basefreq=60 r1=1.369 x1=0.1025 units=km normamps=116.0
New "Linecode.2X25AX2BT2X25AX1_4" nphases=4 basefreq=60 r1=1.369 x1=0.1025 units=km normamps=116.0
New "Linecode.1/0AN2MT6CN1_1" nphases=1 basefreq=60 r1=0.613 x1=0.32443494 units=km normamps=200.0
New "Linecode.1/0AN2MT6CN1_2" nphases=2 basefreq=60 r1=0.613 x1=0.32443494 units=km normamps=200.0
New "Linecode.1/0AN2MT6CN1_3" nphases=3 basefreq=60 r1=0.613 x1=0.32443494 units=km normamps=200.0
New "Linecode.1/0AN2MT6CN1_4" nphases=4 basefreq=60 r1=0.613 x1=0.32443494 units=km normamps=200.0
New "Linecode.1/0AN3BT6CN1_1" nphases=1 basefreq=60 r1=0.613 x1=0.32443494 units=km normamps=200.0
New "Linecode.1/0AN3BT6CN1_2" nphases=2 basefreq=60 r1=0.613 x1=0.32443494 units=km normamps=200.0
New "Linecode.1/0AN3BT6CN1_3" nphases=3 basefreq=60 r1=0.613 x1=0.32443494 units=km normamps=200.0
New "Linecode.1/0AN3BT6CN1_4" nphases=4 basefreq=60 r1=0.613 x1=0.32443494 units=km normamps=200.0
New "Linecode.2ANA3MT4ANA1_1" nphases=1 basefreq=60 r1=0.975 x1=0.38643175 units=km normamps=100.0
New "Linecode.2ANA3MT4ANA1_2" nphases=2 basefreq=60 r1=0.975 x1=0.38643175 units=km normamps=100.0
New "Linecode.2ANA3MT4ANA1_3" nphases=3 basefreq=60 r1=0.975 x1=0.38643175 units=km normamps=100.0
New "Linecode.2ANA3MT4ANA1_4" nphases=4 basefreq=60 r1=0.975 x1=0.38643175 units=km normamps=100.0
New "Linecode.2CC2BT4AN1_1" nphases=1 basefreq=60 r1=0.62 x1=0.34185621 units=km normamps=200.0
New "Linecode.2CC2BT4AN1_2" nphases=2 basefreq=60 r1=0.62 x1=0.34185621 units=km normamps=200.0
New "Linecode.2CC2BT4AN1_3" nphases=3 basefreq=60 r1=0.62 x1=0.34185621 units=km normamps=200.0
New "Linecode.2CC2BT4AN1_4" nphases=4 basefreq=60 r1=0.62 x1=0.34185621 units=km normamps=200.0
New "Linecode.2CN3BT336AN1_1" nphases=1 basefreq=60 r1=0.62 x1=0.34235254 units=km normamps=200.0
New "Linecode.2CN3BT336AN1_2" nphases=2 basefreq=60 r1=0.62 x1=0.34235254 units=km normamps=200.0
New "Linecode.2CN3BT336AN1_3" nphases=3 basefreq=60 r1=0.62 x1=0.34235254 units=km normamps=200.0
New "Linecode.2CN3BT336AN1_4" nphases=4 basefreq=60 r1=0.62 x1=0.34235254 units=km normamps=200.0
New "Linecode.1/0CN3MT2CN1_1" nphases=1 basefreq=60 r1=0.389 x1=0.32370588 units=km normamps=260.0
New "Linecode.1/0CN3MT2CN1_2" nphases=2 basefreq=60 r1=0.389 x1=0.32370588 units=km normamps=260.0
New "Linecode.1/0CN3MT2CN1_3" nphases=3 basefreq=60 r1=0.389 x1=0.32370588 units=km normamps=260.0
New "Linecode.1/0CN3MT2CN1_4" nphases=4 basefreq=60 r1=0.389 x1=0.32370588 units=km normamps=260.0
New "Linecode.120CEBT_PT3BT120CEB1_1" nphases=1 basefreq=60 r1=0.175 x1=1.0 units=km normamps=186.0
New "Linecode.120CEBT_PT3BT120CEB1_2" nphases=2 basefreq=60 r1=0.175 x1=1.0 units=km normamps=186.0
New "Linecode.120CEBT_PT3BT120CEB1_3" nphases=3 basefreq=60 r1=0.175 x1=1.0 units=km normamps=186.0
New "Linecode.120CEBT_PT3BT120CEB1_4" nphases=4 basefreq=60 r1=0.175 x1=1.0 units=km normamps=186.0
New "Linecode.NEUTRO1/0AN1_1" nphases=1 basefreq=60 r1=0.613 x1=0.93854862 units=km normamps=200.0
New "Linecode.NEUTRO1/0AN1_2" nphases=2 basefreq=60 r1=0.613 x1=0.93854862 units=km normamps=200.0
New "Linecode.NEUTRO1/0AN1_3" nphases=3 basefreq=60 r1=0.613 x1=0.93854862 units=km normamps=200.0
New "Linecode.NEUTRO1/0AN1_4" nphases=4 basefreq=60 r1=0.613 x1=0.93854862 units=km normamps=200.0
New "Linecode.2X1010AX2BT1X1611_1" nphases=1 basefreq=60 r1=3.514 x1=0.1115 units=km normamps=76.0
New "Linecode.2X1010AX2BT1X1611_2" nphases=2 basefreq=60 r1=3.514 x1=0.1115 units=km normamps=76.0
New "Linecode.2X1010AX2BT1X1611_3" nphases=3 basefreq=60 r1=3.514 x1=0.1115 units=km normamps=76.0
New "Linecode.2X1010AX2BT1X1611_4" nphases=4 basefreq=60 r1=3.514 x1=0.1115 units=km normamps=76.0
New "Linecode.185AXBT_PT1BT1_1" nphases=1 basefreq=60 r1=0.188 x1=0.25400001 units=km normamps=236.0
New "Linecode.185AXBT_PT1BT1_2" nphases=2 basefreq=60 r1=0.188 x1=0.25400001 units=km normamps=236.0
New "Linecode.185AXBT_PT1BT1_3" nphases=3 basefreq=60 r1=0.188 x1=0.25400001 units=km normamps=236.0
New "Linecode.185AXBT_PT1BT1_4" nphases=4 basefreq=60 r1=0.188 x1=0.25400001 units=km normamps=236.0
New "Linecode.185AX3MT3X2402_1" nphases=1 basefreq=60 r1=0.188 x1=0.25400001 units=km normamps=416.0
New "Linecode.185AX3MT3X2402_2" nphases=2 basefreq=60 r1=0.188 x1=0.25400001 units=km normamps=416.0
New "Linecode.185AX3MT3X2402_3" nphases=3 basefreq=60 r1=0.188 x1=0.25400001 units=km normamps=416.0
New "Linecode.185AX3MT3X2402_4" nphases=4 basefreq=60 r1=0.188 x1=0.25400001 units=km normamps=416.0
New "Linecode.1/0CC3BT1/0CN1_1" nphases=1 basefreq=60 r1=0.389 x1=0.32495254 units=km normamps=260.0
New "Linecode.1/0CC3BT1/0CN1_2" nphases=2 basefreq=60 r1=0.389 x1=0.32495254 units=km normamps=260.0
New "Linecode.1/0CC3BT1/0CN1_3" nphases=3 basefreq=60 r1=0.389 x1=0.32495254 units=km normamps=260.0
New "Linecode.1/0CC3BT1/0CN1_4" nphases=4 basefreq=60 r1=0.389 x1=0.32495254 units=km normamps=260.0
New "Linecode.3X2525AX3BT1_1" nphases=1 basefreq=60 r1=1.369 x1=0.1025 units=km normamps=116.0
New "Linecode.3X2525AX3BT1_2" nphases=2 basefreq=60 r1=1.369 x1=0.1025 units=km normamps=116.0
New "Linecode.3X2525AX3BT1_3" nphases=3 basefreq=60 r1=1.369 x1=0.1025 units=km normamps=116.0
New "Linecode.3X2525AX3BT1_4" nphases=4 basefreq=60 r1=1.369 x1=0.1025 units=km normamps=116.0
New "Linecode.4ANA3MT4AN1_1" nphases=1 basefreq=60 r1=1.551 x1=0.45842001 units=km normamps=110.0
New "Linecode.4ANA3MT4AN1_2" nphases=2 basefreq=60 r1=1.551 x1=0.45842001 units=km normamps=110.0
New "Linecode.4ANA3MT4AN1_3" nphases=3 basefreq=60 r1=1.551 x1=0.45842001 units=km normamps=110.0
New "Linecode.4ANA3MT4AN1_4" nphases=4 basefreq=60 r1=1.551 x1=0.45842001 units=km normamps=110.0
New "Linecode.4AN2BT4ANA1_1" nphases=1 basefreq=60 r1=1.551 x1=0.35923985 units=km normamps=110.0
New "Linecode.4AN2BT4ANA1_2" nphases=2 basefreq=60 r1=1.551 x1=0.35923985 units=km normamps=110.0
New "Linecode.4AN2BT4ANA1_3" nphases=3 basefreq=60 r1=1.551 x1=0.35923985 units=km normamps=110.0
New "Linecode.4AN2BT4ANA1_4" nphases=4 basefreq=60 r1=1.551 x1=0.35923985 units=km normamps=110.0
New "Linecode.4AN3MT6CN1_1" nphases=1 basefreq=60 r1=1.551 x1=0.35923493 units=km normamps=110.0
New "Linecode.4AN3MT6CN1_2" nphases=2 basefreq=60 r1=1.551 x1=0.35923493 units=km normamps=110.0
New "Linecode.4AN3MT6CN1_3" nphases=3 basefreq=60 r1=1.551 x1=0.35923493 units=km normamps=110.0
New "Linecode.4AN3MT6CN1_4" nphases=4 basefreq=60 r1=1.551 x1=0.35923493 units=km normamps=110.0
New "Linecode.4/0ANA1MT4ANA1_1" nphases=1 basefreq=60 r1=0.306 x1=0.29829007 units=km normamps=110.0
New "Linecode.4/0ANA1MT4ANA1_2" nphases=2 basefreq=60 r1=0.306 x1=0.29829007 units=km normamps=110.0
New "Linecode.4/0ANA1MT4ANA1_3" nphases=3 basefreq=60 r1=0.306 x1=0.29829007 units=km normamps=110.0
New "Linecode.4/0ANA1MT4ANA1_4" nphases=4 basefreq=60 r1=0.306 x1=0.29829007 units=km normamps=110.0
New "Linecode.4/0CC3BT4CN1_1" nphases=1 basefreq=60 r1=0.195 x1=0.29357672 units=km normamps=400.0
New "Linecode.4/0CC3BT4CN1_2" nphases=2 basefreq=60 r1=0.195 x1=0.29357672 units=km normamps=400.0
New "Linecode.4/0CC3BT4CN1_3" nphases=3 basefreq=60 r1=0.195 x1=0.29357672 units=km normamps=400.0
New "Linecode.4/0CC3BT4CN1_4" nphases=4 basefreq=60 r1=0.195 x1=0.29357672 units=km normamps=400.0
New "Linecode.70AX2MT5AZN2_1" nphases=1 basefreq=60 r1=0.506 x1=0.29100001 units=km normamps=221.0
New "Linecode.70AX2MT5AZN2_2" nphases=2 basefreq=60 r1=0.506 x1=0.29100001 units=km normamps=221.0
New "Linecode.70AX2MT5AZN2_3" nphases=3 basefreq=60 r1=0.506 x1=0.29100001 units=km normamps=221.0
New "Linecode.70AX2MT5AZN2_4" nphases=4 basefreq=60 r1=0.506 x1=0.29100001 units=km normamps=221.0
New "Linecode.70CXBT2BT70CXBT1_1" nphases=1 basefreq=60 r1=0.305 x1=1.0 units=km normamps=218.0
New "Linecode.70CXBT2BT70CXBT1_2" nphases=2 basefreq=60 r1=0.305 x1=1.0 units=km normamps=218.0
New "Linecode.70CXBT2BT70CXBT1_3" nphases=3 basefreq=60 r1=0.305 x1=1.0 units=km normamps=218.0
New "Linecode.70CXBT2BT70CXBT1_4" nphases=4 basefreq=60 r1=0.305 x1=1.0 units=km normamps=218.0
New "Linecode.336AN3MT4ANA1_1" nphases=1 basefreq=60 r1=0.18980409 x1=0.39037696 units=km normamps=430.0
New "Linecode.336AN3MT4ANA1_2" nphases=2 basefreq=60 r1=0.18980409 x1=0.39037696 units=km normamps=430.0
New "Linecode.336AN3MT4ANA1_3" nphases=3 basefreq=60 r1=0.18980409 x1=0.39037696 units=km normamps=430.0
New "Linecode.336AN3MT4ANA1_4" nphases=4 basefreq=60 r1=0.18980409 x1=0.39037696 units=km normamps=430.0
New "Linecode.4ACA2BT4ANA1_1" nphases=1 basefreq=60 r1=1.551 x1=0.93783063 units=km normamps=110.0
New "Linecode.4ACA2BT4ANA1_2" nphases=2 basefreq=60 r1=1.551 x1=0.93783063 units=km normamps=110.0
New "Linecode.4ACA2BT4ANA1_3" nphases=3 basefreq=60 r1=1.551 x1=0.93783063 units=km normamps=110.0
New "Linecode.4ACA2BT4ANA1_4" nphases=4 basefreq=60 r1=1.551 x1=0.93783063 units=km normamps=110.0
New "Linecode.4AC3BT4AC1_1" nphases=1 basefreq=60 r1=1.551 x1=0.1025 units=km normamps=110.0
New "Linecode.4AC3BT4AC1_2" nphases=2 basefreq=60 r1=1.551 x1=0.1025 units=km normamps=110.0
New "Linecode.4AC3BT4AC1_3" nphases=3 basefreq=60 r1=1.551 x1=0.1025 units=km normamps=110.0
New "Linecode.4AC3BT4AC1_4" nphases=4 basefreq=60 r1=1.551 x1=0.1025 units=km normamps=110.0
New "Linecode.4AC3BT4ANA1_1" nphases=1 basefreq=60 r1=1.551 x1=0.1025 units=km normamps=110.0
New "Linecode.4AC3BT4ANA1_2" nphases=2 basefreq=60 r1=1.551 x1=0.1025 units=km normamps=110.0
New "Linecode.4AC3BT4ANA1_3" nphases=3 basefreq=60 r1=1.551 x1=0.1025 units=km normamps=110.0
New "Linecode.4AC3BT4ANA1_4" nphases=4 basefreq=60 r1=1.551 x1=0.1025 units=km normamps=110.0
New "Linecode.4AC3BT4AN1_1" nphases=1 basefreq=60 r1=1.551 x1=0.1025 units=km normamps=110.0
New "Linecode.4AC3BT4AN1_2" nphases=2 basefreq=60 r1=1.551 x1=0.1025 units=km normamps=110.0
New "Linecode.4AC3BT4AN1_3" nphases=3 basefreq=60 r1=1.551 x1=0.1025 units=km normamps=110.0
New "Linecode.4AC3BT4AN1_4" nphases=4 basefreq=60 r1=1.551 x1=0.1025 units=km normamps=110.0
New "Linecode.4AC3BT6CN1_1" nphases=1 basefreq=60 r1=1.551 x1=0.1025 units=km normamps=110.0
New "Linecode.4AC3BT6CN1_2" nphases=2 basefreq=60 r1=1.551 x1=0.1025 units=km normamps=110.0
New "Linecode.4AC3BT6CN1_3" nphases=3 basefreq=60 r1=1.551 x1=0.1025 units=km normamps=110.0
New "Linecode.4AC3BT6CN1_4" nphases=4 basefreq=60 r1=1.551 x1=0.1025 units=km normamps=110.0
New "Linecode.4ACA2BT4AN1_1" nphases=1 basefreq=60 r1=1.551 x1=0.93783063 units=km normamps=110.0
New "Linecode.4ACA2BT4AN1_2" nphases=2 basefreq=60 r1=1.551 x1=0.93783063 units=km normamps=110.0
New "Linecode.4ACA2BT4AN1_3" nphases=3 basefreq=60 r1=1.551 x1=0.93783063 units=km normamps=110.0
New "Linecode.4ACA2BT4AN1_4" nphases=4 basefreq=60 r1=1.551 x1=0.93783063 units=km normamps=110.0
New "Linecode.4AC1BT1_1" nphases=1 basefreq=60 r1=1.551 x1=0.1025 units=km normamps=110.0
New "Linecode.4AC1BT1_2" nphases=2 basefreq=60 r1=1.551 x1=0.1025 units=km normamps=110.0
New "Linecode.4AC1BT1_3" nphases=3 basefreq=60 r1=1.551 x1=0.1025 units=km normamps=110.0
New "Linecode.4AC1BT1_4" nphases=4 basefreq=60 r1=1.551 x1=0.1025 units=km normamps=110.0
New "Linecode.4AC1BT3/0AN1_1" nphases=1 basefreq=60 r1=1.551 x1=0.1025 units=km normamps=110.0
New "Linecode.4AC1BT3/0AN1_2" nphases=2 basefreq=60 r1=1.551 x1=0.1025 units=km normamps=110.0
New "Linecode.4AC1BT3/0AN1_3" nphases=3 basefreq=60 r1=1.551 x1=0.1025 units=km normamps=110.0
New "Linecode.4AC1BT3/0AN1_4" nphases=4 basefreq=60 r1=1.551 x1=0.1025 units=km normamps=110.0
New "Linecode.4AC1BT4AC1_1" nphases=1 basefreq=60 r1=1.551 x1=0.1025 units=km normamps=110.0
New "Linecode.4AC1BT4AC1_2" nphases=2 basefreq=60 r1=1.551 x1=0.1025 units=km normamps=110.0
New "Linecode.4AC1BT4AC1_3" nphases=3 basefreq=60 r1=1.551 x1=0.1025 units=km normamps=110.0
New "Linecode.4AC1BT4AC1_4" nphases=4 basefreq=60 r1=1.551 x1=0.1025 units=km normamps=110.0
New "Linecode.4AC1BT4AN1_1" nphases=1 basefreq=60 r1=1.551 x1=0.1025 units=km normamps=110.0
New "Linecode.4AC1BT4AN1_2" nphases=2 basefreq=60 r1=1.551 x1=0.1025 units=km normamps=110.0
New "Linecode.4AC1BT4AN1_3" nphases=3 basefreq=60 r1=1.551 x1=0.1025 units=km normamps=110.0
New "Linecode.4AC1BT4AN1_4" nphases=4 basefreq=60 r1=1.551 x1=0.1025 units=km normamps=110.0
New "Linecode.4AC1MT1_1" nphases=1 basefreq=60 r1=1.551 x1=0.1025 units=km normamps=110.0
New "Linecode.4AC1MT1_2" nphases=2 basefreq=60 r1=1.551 x1=0.1025 units=km normamps=110.0
New "Linecode.4AC1MT1_3" nphases=3 basefreq=60 r1=1.551 x1=0.1025 units=km normamps=110.0
New "Linecode.4AC1MT1_4" nphases=4 basefreq=60 r1=1.551 x1=0.1025 units=km normamps=110.0
New "Linecode.4AC1MT4AC1_1" nphases=1 basefreq=60 r1=1.551 x1=0.1025 units=km normamps=110.0
New "Linecode.4AC1MT4AC1_2" nphases=2 basefreq=60 r1=1.551 x1=0.1025 units=km normamps=110.0
New "Linecode.4AC1MT4AC1_3" nphases=3 basefreq=60 r1=1.551 x1=0.1025 units=km normamps=110.0
New "Linecode.4AC1MT4AC1_4" nphases=4 basefreq=60 r1=1.551 x1=0.1025 units=km normamps=110.0
...
