examples/feeders/RITQ1305/DU_1_ChavesMT_391_ITQ_RITQ1305.dss
! DU_1_ChavesMT_391_ITQ_RITQ1305
New "Line.CMT_165BR006136469" phases=3 bus1="MT3669727740362373IT05.1.2.3" bus2="MT318765883ID.1.2.3" r1=0.001 r0=0.001 x1=0 x0=0 c1=0 c0=0 length=0.001 switch=T
New "Line.CMT_165CF005727109" phases=1 bus1="MT3677393340244074IT05.1.2.3" bus2="MT192346202ID.1.2.3" r1=0.001 r0=0.001 x1=0 x0=0 c1=0 c0=0 length=-0.001 switch=T
New "Line.CMT_165BR005561529" phases=3 bus1="MT3674076840168061IT05.1.2.3" bus2="MT124985016ID.1.2.3" r1=0.001 r0=0.001 x1=0 x0=0 c1=0 c0=0 length=0.001 switch=T
New "Line.CMT_165TD005404369" phases=3 bus1="MT3633097640426256IT05.1.2.3" bus2="MT2995897ID.1.2.3" r1=0.001 r0=0.001 x1=0 x0=0 c1=0 c0=0 length=0.001 switch=F
New "Line.CMT_165BF005459359" phases=3 bus1="MT3673670640232054IT05.1.2.3" bus2="MT2985085ID.1.2.3" r1=0.001 r0=0.001 x1=0 x0=0 c1=0 c0=0 length=0.001 switch=T
New "Line.CMT_165BF005998529" phases=3 bus1="MT366927640343758IT05.1.2.3" bus2="MT307410209ID.1.2.3" r1=0.001 r0=0.001 x1=0 x0=0 c1=0 c0=0 length=0.001 switch=T
New "Line.CMT_165RL005625939" phases=3 bus1="MT3672805940265494IT05.1.2.3" bus2="MT129398307ID.1.2.3" r1=0.001 r0=0.001 x1=0 x0=0 c1=0 c0=0 length=0.001 switch=T
New "Line.CMT_165BF000007139" phases=3 bus1="MT3666792140365888IT05.1.2.3" bus2="MT2999551ID.1.2.3" r1=0.001 r0=0.001 x1=0 x0=0 c1=0 c0=0 length=0.001 switch=T
New "Line.CMT_165CF005236039" phases=3 bus1="MT36744194035133IT05.1.2.3" bus2="MT2989413ID.1.2.3" r1=0.001 r0=0.001 x1=0 x0=0 c1=0 c0=0 length=0.001 switch=T
New "Line.CMT_165BF005391569" phases=3 bus1="MT365097640337895IT05.1.2.3" bus2="MT2999139ID.1.2.3" r1=0.001 r0=0.001 x1=0 x0=0 c1=0 c0=0 length=0.001 switch=T
New "Line.CMT_165CF000706999" phases=3 bus1="MT366540844020258IT05.1.2.3" bus2="MT2992159ID.1.2.3" r1=0.001 r0=0.001 x1=0 x0=0 c1=0 c0=0 length=0.001 switch=F
New "Line.CMT_165BF000018559" phases=3 bus1="MT366354240357087IT05.1.2.3" bus2="MT2989853ID.1.2.3" r1=0.001 r0=0.001 x1=0 x0=0 c1=0 c0=0 length=0.001 switch=T
New "Line.CMT_165TD005404449" phases=3 bus1="MT3631944440423899IT05.1.2.3" bus2="MT2989726ID.1.2.3" r1=0.001 r0=0.001 x1=0 x0=0 c1=0 c0=0 length=0.001 switch=F
New "Line.CMT_165BF005212009" phases=3 bus1="MT3667080540358086IT05.1.2.3" bus2="MT2981688ID.1.2.3" r1=0.001 r0=0.001 x1=0 x0=0 c1=0 c0=0 length=0.001 switch=T
New "Line.CMT_165CF005595649" phases=3 bus1="MT3650796540337238IT05.1.2.3" bus2="MT126549600ID.1.2.3" r1=0.001 r0=0.001 x1=0 x0=0 c1=0 c0=0 length=0.001 switch=T
New "Line.CMT_165CF005719139" phases=3 bus1="MT3667671540229589IT05.1.2.3" bus2="MT192323667ID.1.2.3" r1=0.001 r0=0.001 x1=0 x0=0 c1=0 c0=0 length=0.001 switch=T
New "Line.CMT_165FF005459969" phases=3 bus1="MT3674682140229287IT05.1.2.3" bus2="MT20611907ID.1.2.3" r1=0.001 r0=0.001 x1=0 x0=0 c1=0 c0=0 length=0.001 switch=T
New "Line.CMT_165CF005284379" phases=3 bus1="MT3671640440264557IT05.1.2.3" bus2="MT2983682ID.1.2.3" r1=0.001 r0=0.001 x1=0 x0=0 c1=0 c0=0 length=0.001 switch=T
New "Line.CMT_165BF006041409" phases=3 bus1="MT3666792140355487IT05.1.2.3" bus2="MT313225545ID.1.2.3" r1=0.001 r0=0.001 x1=0 x0=0 c1=0 c0=0 length=0.001 switch=T
New "Line.CMT_165CF005236019" phases=3 bus1="MT3637479540414142IT05.1.2.3" bus2="MT2991288ID.1.2.3" r1=0.001 r0=0.001 x1=0 x0=0 c1=0 c0=0 length=0.001 switch=T
New "Line.CMT_165BF005998519" phases=3 bus1="MT3668072140334083IT05.1.2.3" bus2="MT307409808ID.1.2.3" r1=0.001 r0=0.001 x1=0 x0=0 c1=0 c0=0 length=0.001 switch=T
New "Line.CMT_165CF005236049" phases=3 bus1="MT367555984034178IT05.1.2.3" bus2="MT2984444ID.1.2.3" r1=0.001 r0=0.001 x1=0 x0=0 c1=0 c0=0 length=0.001 switch=T
New "Line.CMT_165CF005284969" phases=3 bus1="MT36748453403498IT05.1.2.3" bus2="MT2983667ID.1.2.3" r1=0.001 r0=0.001 x1=0 x0=0 c1=0 c0=0 length=0.001 switch=T
New "Line.CMT_165RL006135569" phases=3 bus1="MT3674020540203589IT05.1.2.3" bus2="MT319889347ID.1.2.3" r1=0.001 r0=0.001 x1=0 x0=0 c1=0 c0=0 length=0.001 switch=T
New "Line.CMT_165CF005236059" phases=3 bus1="MT3675543240341989IT05.1.2.3" bus2="MT2986708ID.1.2.3" r1=0.001 r0=0.001 x1=0 x0=0 c1=0 c0=0 length=0.001 switch=F
New "Line.CMT_165RL005719259" phases=3 bus1="MT366639684036826IT05.1.2.3" bus2="MT192346174ID.1.2.3" r1=0.001 r0=0.001 x1=0 x0=0 c1=0 c0=0 length=0.001 switch=T
New "Line.CMT_165TD005404439" phases=3 bus1="MT3631942440424023IT05.1.2.3" bus2="MT2983231ID.1.2.3" r1=0.001 r0=0.001 x1=0 x0=0 c1=0 c0=0 length=0.001 switch=T
New "Line.CMT_165BF005574559" phases=3 bus1="MT3659854840387813IT05.1.2.3" bus2="MT125541098ID.1.2.3" r1=0.001 r0=0.001 x1=0 x0=0 c1=0 c0=0 length=0.001 switch=T
New "Line.CMT_165TD005558769" phases=3 bus1="MT3647659240331293IT05.1.2.3" bus2="MT124814059ID.1.2.3" r1=0.001 r0=0.001 x1=0 x0=0 c1=0 c0=0 length=0.001 switch=F
New "Line.CMT_165CF000707949" phases=3 bus1="MT3677753440250479IT05.1.2.3" bus2="MT2999603ID.1.2.3" r1=0.001 r0=0.001 x1=0 x0=0 c1=0 c0=0 length=0.001 switch=T
New "Line.CMT_165BF005585139" phases=3 bus1="MT3669300740324001IT05.1.2.3" bus2="MT126113782ID.1.2.3" r1=0.001 r0=0.001 x1=0 x0=0 c1=0 c0=0 length=0.001 switch=T
New "Line.CMT_165CF005595639" phases=3 bus1="MT3659090540391074IT05.1.2.3" bus2="MT126538554ID.1.2.3" r1=0.001 r0=0.001 x1=0 x0=0 c1=0 c0=0 length=0.001 switch=T
New "Line.CMT_165RL006135568_A" phases=3 bus1="MT3674020540203589IT05.1.2.3" bus2="MT309524215ID.1.2.3" r1=0.001 r0=0.001 x1=0 x0=0 c1=0 c0=0 length=0.001 switch=T
New "Line.CMT_165BC005364608_A" phases=3 bus1="MT3674868240264866IT05.1.2.3" bus2="MT202877995ID.1.2.3" r1=0.001 r0=0.001 x1=0 x0=0 c1=0 c0=0 length=0.001 switch=T
New "Line.CMT_165RL005719258_A" phases=3 bus1="MT366639684036826IT05.1.2.3" bus2="MT225496008ID.1.2.3" r1=0.001 r0=0.001 x1=0 x0=0 c1=0 c0=0 length=0.001 switch=T
New "Line.CMT_165BF005998499" phases=3 bus1="MT36666140350685IT05.1.2.3" bus2="MT307408204ID.1.2.3" r1=0.001 r0=0.001 x1=0 x0=0 c1=0 c0=0 length=0.001 switch=T
New "Line.CMT_165BF005459339" phases=3 bus1="MT367409244017841IT05.1.2.3" bus2="MT2995703ID.1.2.3" r1=0.001 r0=0.001 x1=0 x0=0 c1=0 c0=0 length=0.001 switch=T
New "Line.CMT_165RL005625938_A" phases=3 bus1="MT3672805940265494IT05.1.2.3" bus2="MT205823875ID.1.2.3" r1=0.001 r0=0.001 x1=0 x0=0 c1=0 c0=0 length=0.001 switch=T
New "Line.CMT_165CF005232999" phases=3 bus1="MT36274524040257IT05.1.2.3" bus2="MT2996267ID.1.2.3" r1=0.001 r0=0.001 x1=0 x0=0 c1=0 c0=0 length=0.001 switch=T
New "Line.CMT_165RT000000208_A" phases=3 bus1="MT36757240340048IT05.1.2.3" bus2="MT202879326ID.1.2.3" r1=0.001 r0=0.001 x1=0 x0=0 c1=0 c0=0 length=0.001 switch=T
New "Line.CMT_165CF005233009" phases=3 bus1="MT362743874040242IT05.1.2.3" bus2="MT2999306ID.1.2.3" r1=0.001 r0=0.001 x1=0 x0=0 c1=0 c0=0 length=0.001 switch=F
New "Line.CMT_165BF005998509" phases=3 bus1="MT3666730140357485IT05.1.2.3" bus2="MT307409407ID.1.2.3" r1=0.001 r0=0.001 x1=0 x0=0 c1=0 c0=0 length=0.001 switch=T
New "Line.CMT_165TD005404359" phases=3 bus1="MT3633086440426459IT05.1.2.3" bus2="MT2985957ID.1.2.3" r1=0.001 r0=0.001 x1=0 x0=0 c1=0 c0=0 length=0.001 switch=T
New "Line.CMT_165BF005574389" phases=3 bus1="MT3660533940380608IT05.1.2.3" bus2="MT125517358ID.1.2.3" r1=0.001 r0=0.001 x1=0 x0=0 c1=0 c0=0 length=0.001 switch=T
New "Line.CMT_165BF000009189" phases=3 bus1="MT3668841940237608IT05.1.2.3" bus2="MT2994138ID.1.2.3" r1=0.001 r0=0.001 x1=0 x0=0 c1=0 c0=0 length=0.001 switch=T
New "Line.CMT_165BF005211989" phases=3 bus1="MT3666656540362564IT05.1.2.3" bus2="MT2983303ID.1.2.3" r1=0.001 r0=0.001 x1=0 x0=0 c1=0 c0=0 length=0.001 switch=T
