examples/feeders/RITQ1305/DU_1_TrechoMT_391_ITQ_RITQ1305.dss
! DU_1_TrechoMT_391_ITQ_RITQ1305
New "Line.SMT_330419829_F" phases=3 bus1="MT3637769940408549IT05.1.2.3.4" bus2="MT3637972940405215IT05.1.2.3.4" linecode="185AX3MT5AZN1_3" length=0.04024405 units=km
New "Line.SMT_139989135_F" phases=3 bus1="MT3659282540386302IT05.1.2.3.4" bus2="MT3658988440384404IT05.1.2.3.4" linecode="70AX3MT5AZN1_3" length=0.03608809 units=km
New "Line.SMT_31458356_F" phases=3 bus1="MT367765140304852IT05.1.2.3.4" bus2="MT3677740740302261IT05.1.2.3.4" linecode="336AN3MT3/0AN1_3" length=0.02826899 units=km
New "Line.SMT_29563541_F" phases=3 bus1="MT3674763740166986IT05.1.2.3" bus2="MT3675053640166586IT05.1.2.3" linecode="1/0AN3MT1_3" length=0.03017222 units=km
New "Line.SMT_41258211_F" phases=3 bus1="MT3675046940228702IT05.1.2.3.4" bus2="MT3675177940228497IT05.1.2.3.4" linecode="185AX3MT5AZN1_3" length=0.01367003 units=km
New "Line.SMT_222417220_B" phases=3 bus1="MT3674005640172336IT05.1.2.3" bus2="MT367395244016871IT05.1.2.3" linecode="1/0AN3MT1_3" length=0.03778409 units=km
New "Line.SMT_27065328_B" phases=3 bus1="MT3665409840202586IT05.1.2.3" bus2="MT366540844020258IT05.1.2.3" linecode="336AN3MT1_3" length=0.00015671 units=km
New "Line.SMT_222412152_F" phases=3 bus1="MT2995703ID.1.2.3.4" bus2="MT3674052940175557IT05.1.2.3.4" linecode="1/0AN3MT1/0AN1_3" length=0.02969486 units=km
New "Line.SMT_41258468_F" phases=3 bus1="MT3672750740257127IT05.1.2.3.4" bus2="MT3672740840256466IT05.1.2.3.4" linecode="185AX3MT5AZN1_3" length=0.00689120 units=km
New "Line.SMT_32024321_B" phases=3 bus1="MT3675659840165551IT05.1.2.3" bus2="MT3675620440168268IT05.1.2.3" linecode="70AX3MT5AZN1_3" length=0.02830507 units=km
New "Line.SMT_2985147_B" phases=3 bus1="MT3675568240174258IT05.1.2.3" bus2="MT3675513140178254IT05.1.2.3" linecode="70AX3MT5AZN1_3" length=0.04158848 units=km
New "Line.SMT_31899423_F" phases=3 bus1="MT3637237140422817IT05.1.2.3.4" bus2="MT3637227340420114IT05.1.2.3.4" linecode="3X240120AX3MT3X2401_3" length=0.02788649 units=km
New "Line.SMT_279278576_F" phases=3 bus1="MT3669527240343449IT05.1.2.3.4" bus2="MT3669277540343756IT05.1.2.3.4" linecode="70AX3MT5AZN1_3" length=0.02593790 units=km
New "Line.SMT_227725635_F" phases=3 bus1="MT3673175640346562IT05.1.2.3.4" bus2="MT3673284740346991IT05.1.2.3.4" linecode="185AX3MT6AZN1_3" length=0.01208641 units=km
New "Line.SMT_31067275_F" phases=3 bus1="MT3627976240408771IT05.1.2.3.4" bus2="MT3628255240411189IT05.1.2.3.4" linecode="3X240120AX3MT3X2401_3" length=0.03806452 units=km
New "Line.SMT_2571679_F" phases=3 bus1="MT313225545ID.1.2.3.4" bus2="MT3666802140352287IT05.1.2.3.4" linecode="1/0AN3MT1/0AN1_3" length=0.03300850 units=km
New "Line.SMT_2674952_F" phases=3 bus1="MT3628565340400704IT05.1.2.3" bus2="MT362870240398987IT05.1.2.3" linecode="3X500CXMT3MT1_3" length=0.02262736 units=km
New "Line.SMT_142328429_F" phases=3 bus1="MT192346174ID.1.2.3.4" bus2="MT3666398340368264IT05.1.2.3.4" linecode="185AX3MT6AZN1_3" length=0.00015981 units=km
New "Line.SMT_30697599_F" phases=3 bus1="MT3665859540355083IT05.1.2.3" bus2="MT3665579440354283IT05.1.2.3" linecode="1/0AN3MT1_3" length=0.03003303 units=km
New "Line.SMT_56607854_F" phases=3 bus1="MT129398307ID.1.2.3.4" bus2="MT3672862140262487IT05.1.2.3.4" linecode="185AX3MT5AZN1_3" length=0.03153932 units=km
New "Line.SMT_142559299_F" phases=3 bus1="MT3666883440218163IT05.1.2.3.4" bus2="MT3666844740217708IT05.1.2.3.4" linecode="185AX3MT5AZN1_3" length=0.00615816 units=km
New "Line.SMT_31266338_F" phases=3 bus1="MT3663239640341137IT05.1.2.3" bus2="MT3663152140337961IT05.1.2.3" linecode="1/0AN3MT1_3" length=0.03396423 units=km
New "Line.SMT_227725652_F" phases=3 bus1="MT3673903740351267IT05.1.2.3.4" bus2="MT367403214035132IT05.1.2.3.4" linecode="185AX3MT6AZN1_3" length=0.01324938 units=km
New "Line.SMT_275983628_F" phases=3 bus1="MT3677383440244086IT05.1.2.3.4" bus2="MT3677373940244099IT05.1.2.3.4" linecode="336AN3MT3/0AN1_3" length=0.00098873 units=km
New "Line.SMT_3067241_F" phases=3 bus1="MT3676552440326513IT05.1.2.3" bus2="MT367673440323347IT05.1.2.3" linecode="336AN3MT1_3" length=0.03763047 units=km
New "Line.SMT_31833706_F" phases=3 bus1="MT3629754340418866IT05.1.2.3.4" bus2="MT3629812140419081IT05.1.2.3.4" linecode="3X240120AX3MT3X2401_3" length=0.00635818 units=km
New "Line.SMT_31266964_B" phases=3 bus1="MT366632834036174IT05.1.2.3" bus2="MT3666048440361027IT05.1.2.3" linecode="1/0AN3MT1_3" length=0.02977940 units=km
New "Line.SMT_30508513_F" phases=3 bus1="MT367444940351273IT05.1.2.3.4" bus2="MT3674742240350999IT05.1.2.3.4" linecode="3X240120AX3MT3X2401_3" length=0.03036089 units=km
New "Line.SMT_2081185_F" phases=3 bus1="MT3674130940180401IT05.1.2.3" bus2="MT3674372140179987IT05.1.2.3" linecode="1/0AN3MT1_3" length=0.02523166 units=km
New "Line.SMT_135477871_F" phases=3 bus1="MT3674173940210485IT05.1.2.3.4" bus2="MT3674582840209832IT05.1.2.3.4" linecode="70AX3MT5AZN1_3" length=0.04269165 units=km
New "Line.SMT_142872066_B" phases=3 bus1="MT3670304540255351IT05.1.2.3" bus2="MT3670304240255348IT05.1.2.3" linecode="185AX3MT5AZN1_3" length=0.00004330 units=km
New "Line.SMT_29553570_F" phases=3 bus1="MT3630184940420022IT05.1.2.3.4" bus2="MT3630496640420565IT05.1.2.3.4" linecode="3X240120AX3MT3X2401_3" length=0.03261981 units=km
New "Line.SMT_28998338_F" phases=3 bus1="MT3676380740330137IT05.1.2.3" bus2="MT3676552440326513IT05.1.2.3" linecode="336AN3MT1_3" length=0.04134516 units=km
New "Line.SMT_31269786_F" phases=3 bus1="MT3676299440250755IT05.1.2.3.4" bus2="MT3676079340253156IT05.1.2.3.4" linecode="185AX3MT6AZN1_3" length=0.03358173 units=km
New "Line.SMT_2312868_F" phases=3 bus1="MT3633095340426401IT05.1.2.3" bus2="MT363309394042634IT05.1.2.3" linecode="336AN3MT1_3" length=0.00064541 units=km
New "Line.SMT_3007792_F" phases=3 bus1="MT3669511840237111IT05.1.2.3" bus2="MT3669429140240258IT05.1.2.3" linecode="1/0AN3MT1_3" length=0.03354668 units=km
New "Line.SMT_1801831_F" phases=3 bus1="MT3673681640230898IT05.1.2.3" bus2="MT3673575240231133IT05.1.2.3" linecode="1/0AN3MT1_3" length=0.01123378 units=km
New "Line.SMT_1943586_F" phases=3 bus1="MT3675672140155889IT05.1.2.3.4" bus2="MT3675655140153568IT05.1.2.3.4" linecode="1/0AN3MT1/0AN1_3" length=0.02399343 units=km
New "Line.SMT_275983629_F" phases=3 bus1="MT3677373940244099IT05.1.2.3.4" bus2="MT367734534024414IT05.1.2.3.4" linecode="336AN3MT3/0AN1_3" length=0.00297856 units=km
New "Line.SMT_2297612_F" phases=3 bus1="MT3674224140186448IT05.1.2.3" bus2="MT3674463740186075IT05.1.2.3" linecode="1/0AN3MT1_3" length=0.02500072 units=km
New "Line.SMT_139925759_F" phases=3 bus1="MT3659457840385555IT05.1.2.3.4" bus2="MT3659162540383825IT05.1.2.3.4" linecode="70AX3MT5AZN1_3" length=0.03528494 units=km
New "Line.SMT_124363090_B" phases=3 bus1="MT3648352340328046IT05.1.2.3" bus2="MT3648450940328093IT05.1.2.3" linecode="185AX3MT5AZN1_3" length=0.01017700 units=km
New "Line.SMT_27116776_B" phases=3 bus1="MT366679240365903IT05.1.2.3" bus2="MT3666792140365888IT05.1.2.3" linecode="1/0AN3MT1_3" length=0.00015465 units=km
New "Line.SMT_28620189_B" phases=3 bus1="MT3674283740230086IT05.1.2.3" bus2="MT3673905440230653IT05.1.2.3" linecode="1/0AN3MT1_3" length=0.03943884 units=km
New "Line.SMT_30887771_B" phases=3 bus1="MT3665747340360281IT05.1.2.3" bus2="MT3665448740359524IT05.1.2.3" linecode="1/0AN3MT1_3" length=0.03175995 units=km
New "Line.SMT_2035828_F" phases=3 bus1="MT3675655140153568IT05.1.2.3" bus2="MT3675833840153285IT05.1.2.3" linecode="1/0AN3MT1_3" length=0.01865388 units=km
New "Line.SMT_142869095_B" phases=3 bus1="MT366996714025044IT05.1.2.3" bus2="MT366976440247724IT05.1.2.3" linecode="185AX3MT5AZN1_3" length=0.03496533 units=km
New "Line.SMT_142388874_B" phases=3 bus1="MT365908940391071IT05.1.2.3" bus2="MT3659090540391074IT05.1.2.3" linecode="185AX3MT6AZN1_3" length=0.00015774 units=km
New "Line.SMT_270041925_F" phases=3 bus1="MT3634547540431083IT05.1.2.3.4" bus2="MT3634657340431086IT05.1.2.3.4" linecode="3X240120AX3MT3X2401_3" length=0.01132038 units=km
New "Line.SMT_33097959_B" phases=3 bus1="MT3672806540258977IT05.1.2.3" bus2="MT3672751440257164IT05.1.2.3" linecode="185AX3MT5AZN1_3" length=0.01953642 units=km
New "Line.SMT_27018584_B" phases=3 bus1="MT192346202ID.1.2.3" bus2="MT3677384940244084IT05.1.2.3" linecode="336AN3MT3/0AN1_3" length=0.00087223 units=km
New "Line.SMT_142555555_B" phases=3 bus1="MT366579640204666IT05.1.2.3" bus2="MT3665644740203683IT05.1.2.3" linecode="185AX3MT5AZN1_3" length=0.01860233 units=km
New "Line.SMT_30506661_F" phases=3 bus1="MT366676774036079IT05.1.2.3" bus2="MT3666802140358596IT05.1.2.3" linecode="1/0AN3MT1_3" length=0.02289645 units=km
New "Line.SMT_3177205_B" phases=3 bus1="MT3673593540205386IT05.1.2.3" bus2="MT3673243540205786IT05.1.2.3" linecode="1/0AN3MT1_3" length=0.03632007 units=km
New "Line.SMT_295041770_F" phases=3 bus1="MT365054740360825IT05.1.2.3.4" bus2="MT365052240363287IT05.1.2.3.4" linecode="70AX3MT5AZN1_3" length=0.02551416 units=km
New "Line.SMT_30506844_F" phases=3 bus1="MT3667542840370807IT05.1.2.3.4" bus2="MT3667913240370732IT05.1.2.3.4" linecode="185AX3MT6AZN1_3" length=0.03819649 units=km
New "Line.SMT_6350603_F" phases=3 bus1="MT3663064440335005IT05.1.2.3" bus2="MT3663047540334434IT05.1.2.3" linecode="1/0AN3MT1_3" length=0.00613961 units=km
New "Line.SMT_330419899_F" phases=3 bus1="MT3642766340350386IT05.1.2.3.4" bus2="MT364311740348447IT05.1.2.3.4" linecode="185AX3MT5AZN1_3" length=0.04131526 units=km
New "Line.SMT_31458185_F" phases=3 bus1="MT3676509440248555IT05.1.2.3.4" bus2="MT3676299440250755IT05.1.2.3.4" linecode="185AX3MT6AZN1_3" length=0.03135683 units=km
New "Line.SMT_139948040_B" phases=3 bus1="MT365973654039008IT05.1.2.3" bus2="MT3660126940388971IT05.1.2.3" linecode="185AX3MT6AZN1_3" length=0.04184313 units=km
New "Line.SMT_227725624_F" phases=3 bus1="MT3673680840348577IT05.1.2.3.4" bus2="MT3673824440349516IT05.1.2.3.4" linecode="185AX3MT6AZN1_3" length=0.01768990 units=km
New "Line.SMT_30890245_F" phases=3 bus1="MT3674868240264866IT05.1.2.3.4" bus2="MT3674517140267074IT05.1.2.3.4" linecode="185AX3MT6AZN1_3" length=0.04276176 units=km
New "Line.SMT_270041899_F" phases=3 bus1="MT363531964042989IT05.1.2.3.4" bus2="MT3635565140429105IT05.1.2.3.4" linecode="3X240120AX3MT3X2401_3" length=0.02657402 units=km
New "Line.SMT_312641141_F" phases=3 bus1="MT3668262240352099IT05.1.2.3" bus2="MT3668212240348499IT05.1.2.3" linecode="1/0AN3MT1_3" length=0.03747273 units=km
New "Line.SMT_30120192_F" phases=3 bus1="MT363000740419455IT05.1.2.3.4" bus2="MT3630184940420022IT05.1.2.3.4" linecode="3X240120AX3MT3X2401_3" length=0.01925083 units=km
New "Line.SMT_142555554_B" phases=3 bus1="MT3665644740203683IT05.1.2.3" bus2="MT3665417540202621IT05.1.2.3" linecode="185AX3MT5AZN1_3" length=0.02585748 units=km
New "Line.SMT_31267296_F" phases=3 bus1="MT3667016140369919IT05.1.2.3.4" bus2="MT36673601403707IT05.1.2.3.4" linecode="185AX3MT6AZN1_3" length=0.03636852 units=km
New "Line.SMT_1987899_F" phases=3 bus1="MT3666262840341224IT05.1.2.3.4" bus2="MT366625240339904IT05.1.2.3.4" linecode="1/0AN3MT1/0AN1_3" length=0.01365456 units=km
New "Line.SMT_27018486_B" phases=3 bus1="MT3666888440215263IT05.1.2.3" bus2="MT3666888740215208IT05.1.2.3" linecode="185AX3MT5AZN1_3" length=0.00056808 units=km
New "Line.SMT_330419864_F" phases=3 bus1="MT364093240365182IT05.1.2.3.4" bus2="MT3641060740363965IT05.1.2.3.4" linecode="185AX3MT5AZN1_3" length=0.01826210 units=km
New "Line.SMT_330419905_F" phases=3 bus1="MT3643646840346071IT05.1.2.3.4" bus2="MT364381344034515IT05.1.2.3.4" linecode="185AX3MT5AZN1_3" length=0.01962612 units=km
New "Line.SMT_1733953_F" phases=3 bus1="MT3668022440330711IT05.1.2.3.4" bus2="MT3667989340327692IT05.1.2.3.4" linecode="1/0AN3MT1/0AN1_3" length=0.03131250 units=km
New "Line.SMT_2190780_F" phases=3 bus1="MT3673202440237669IT05.1.2.3" bus2="MT3672913540238154IT05.1.2.3" linecode="1/0AN3MT1_3" length=0.03020211 units=km
New "Line.SMT_31266339_F" phases=3 bus1="MT3663152140337961IT05.1.2.3" bus2="MT3663064440335005IT05.1.2.3" linecode="1/0AN3MT1_3" length=0.03178985 units=km
New "Line.SMT_32024320_B" phases=3 bus1="MT3675620440168268IT05.1.2.3" bus2="MT367560754017028IT05.1.2.3" linecode="70AX3MT5AZN1_3" length=0.02078599 units=km
New "Line.SMT_80615920_B" phases=3 bus1="MT367228240170748IT05.1.2.3" bus2="MT3672259940172243IT05.1.2.3" linecode="70AX3MT5AZN1_3" length=0.01558047 units=km
New "Line.SMT_1671953_F" phases=3 bus1="MT3163470ID.1.2.3" bus2="MT3675729640339917IT05.1.2.3" linecode="336AN3MT1_3" length=0.00167434 units=km
New "Line.SMT_31726435_F" phases=3 bus1="MT3676890240320296IT05.1.2.3" bus2="MT3677060940317234IT05.1.2.3" linecode="336AN3MT1_3" length=0.03614377 units=km
New "Line.SMT_31269223_F" phases=3 bus1="MT3674232140187192IT05.1.2.3" bus2="MT3674224140186448IT05.1.2.3" linecode="1/0AN3MT1_3" length=0.00771497 units=km
New "Line.SMT_3303812_F" phases=3 bus1="MT3672817140260901IT05.1.2.3.4" bus2="MT3672970440261286IT05.1.2.3.4" linecode="185AX3MT5AZN1_3" length=0.01629599 units=km
New "Line.SMT_30888128_F" phases=3 bus1="MT3666489840338684IT05.1.2.3" bus2="MT3666589340338983IT05.1.2.3" linecode="1/0AN3MT1_3" length=0.01071209 units=km
New "Line.SMT_330419823_F" phases=3 bus1="MT2991288ID.1.2.3.4" bus2="MT3637480240414128IT05.1.2.3.4" linecode="185AX3MT5AZN1_3" length=0.00016187 units=km
New "Line.SMT_225495861_F" phases=3 bus1="MT3666395340368256IT05.1.2.3.4" bus2="MT366639684036826IT05.1.2.3.4" linecode="185AX3MT6AZN1_3" length=0.00015981 units=km
New "Line.SMT_143101146_F" phases=3 bus1="MT367358284019283IT05.1.2.3.4" bus2="MT3673105240193584IT05.1.2.3.4" linecode="70AX3MT5AZN1_3" length=0.04985091 units=km
New "Line.SMT_204746756_F" phases=3 bus1="MT3664190940361995IT05.1.2.3.4" bus2="MT3664418940363131IT05.1.2.3.4" linecode="185AX3MT6AZN1_3" length=0.02626266 units=km
New "Line.SMT_30316165_B" phases=3 bus1="MT3663064440335005IT05.1.2.3" bus2="MT3663298840333989IT05.1.2.3" linecode="1/0AN3MT1/0AN1_3" length=0.02633896 units=km
New "Line.SMT_31833705_F" phases=3 bus1="MT3629673840418571IT05.1.2.3.4" bus2="MT3629754340418866IT05.1.2.3.4" linecode="3X240120AX3MT3X2401_3" length=0.00883979 units=km
New "Line.SMT_225461984_B" phases=3 bus1="MT3667672340229602IT05.1.2.3" bus2="MT3667671540229589IT05.1.2.3" linecode="185AX3MT5AZN1_3" length=0.00015774 units=km
New "Line.SMT_1935238_F" phases=3 bus1="MT3676552440326513IT05.1.2.3.4" bus2="MT3676804640327999IT05.1.2.3.4" linecode="336AN3MT3/0AN1_3" length=0.03017943 units=km
New "Line.SMT_27049261_B" phases=3 bus1="MT3663540440357186IT05.1.2.3" bus2="MT3663541840357102IT05.1.2.3" linecode="185AX3MT1_3" length=0.00087841 units=km
New "Line.SMT_2546722_B" phases=3 bus1="MT3674164840191893IT05.1.2.3" bus2="MT3674053840192086IT05.1.2.3" linecode="1/0AN3MT1_3" length=0.01161628 units=km
New "Line.SMT_29930858_F" phases=3 bus1="MT3628885840416548IT05.1.2.3.4" bus2="MT362915840417242IT05.1.2.3.4" linecode="3X240120AX3MT3X2401_3" length=0.02896182 units=km
New "Line.SMT_135477910_F" phases=3 bus1="MT3673773540211186IT05.1.2.3.4" bus2="MT3673422740211708IT05.1.2.3.4" linecode="70AX3MT5AZN1_3" length=0.03656545 units=km
New "Line.SMT_279388122_F" phases=3 bus1="MT3668072140334098IT05.1.2.3.4" bus2="MT3668072140334083IT05.1.2.3.4" linecode="1/0AN3MT1/0AN1_3" length=0.00015465 units=km
New "Line.SMT_2857912_F" phases=3 bus1="MT3675659840165551IT05.1.2.3" bus2="MT3675662140162589IT05.1.2.3" linecode="1/0AN3MT1_3" length=0.03053925 units=km
New "Line.SMT_141218377_B" phases=3 bus1="MT3660436440384039IT05.1.2.3" bus2="MT3660643940380623IT05.1.2.3" linecode="185AX3MT6AZN1_3" length=0.04120701 units=km
New "Line.SMT_329675446_F" phases=3 bus1="MT3650314440335914IT05.1.2.3.4" bus2="MT3650422740336172IT05.1.2.3.4" linecode="185AX3MT6AZN1_3" length=0.01147812 units=km
New "Line.SMT_329634696_B" phases=3 bus1="MT365079840349445IT05.1.2.3" bus2="MT365079414035164IT05.1.2.3" linecode="70AX3MT5AZN1_3" length=0.02263354 units=km
New "Line.SMT_330419841_F" phases=3 bus1="MT3638990340390605IT05.1.2.3.4" bus2="MT3639158740388208IT05.1.2.3.4" linecode="185AX3MT5AZN1_3" length=0.03020211 units=km
New "Line.SMT_139925780_F" phases=3 bus1="MT365962144038658IT05.1.2.3.4" bus2="MT3659532140387813IT05.1.2.3.4" linecode="70AX3MT5AZN1_3" length=0.01569594 units=km
New "Line.SMT_1810482_F" phases=3 bus1="MT2984444ID.1.2.3" bus2="MT3675557140341834IT05.1.2.3" linecode="336AN3MT1_3" length=0.00062272 units=km
New "Line.SMT_141220840_F" phases=3 bus1="MT36600534037634IT05.1.2.3.4" bus2="MT3659731840374631IT05.1.2.3.4" linecode="70AX3MT5AZN1_3" length=0.03751190 units=km
New "Line.SMT_29183242_F" phases=3 bus1="MT3666413840343742IT05.1.2.3" bus2="MT3666262840341224IT05.1.2.3" linecode="1/0AN3MT1_3" length=0.03027119 units=km
New "Line.SMT_292149780_F" phases=3 bus1="MT3666792140355502IT05.1.2.3" bus2="MT3666792140355487IT05.1.2.3" linecode="1/0AN3MT1_3" length=0.00015465 units=km
New "Line.SMT_31899496_F" phases=3 bus1="MT126549600ID.1.2.3.4" bus2="MT3650967740337819IT05.1.2.3.4" linecode="185AX3MT6AZN1_3" length=0.01863945 units=km
New "Line.SMT_29374030_F" phases=3 bus1="MT3672212140266887IT05.1.2.3.4" bus2="MT367193240265655IT05.1.2.3.4" linecode="185AX3MT6AZN1_3" length=0.03154860 units=km
New "Line.SMT_31934976_F" phases=3 bus1="MT367555440341531IT05.1.2.3.4" bus2="MT367556894034164IT05.1.2.3.4" linecode="185AX3MT6AZN1_3" length=0.00190323 units=km
New "Line.SMT_331313046_F" phases=3 bus1="MT3653510240356296IT05.1.2.3.4" bus2="MT365364774035714IT05.1.2.3.4" linecode="185AX3MT6AZN1_3" length=0.01663415 units=km
New "Line.SMT_28987710_F" phases=3 bus1="MT3630845640421302IT05.1.2.3.4" bus2="MT3631216140422175IT05.1.2.3.4" linecode="3X240120AX3MT3X2401_3" length=0.03924502 units=km
New "Line.SMT_227725627_F" phases=3 bus1="MT367112240353207IT05.1.2.3.4" bus2="MT3671676340350259IT05.1.2.3.4" linecode="185AX3MT6AZN1_3" length=0.06472824 units=km
New "Line.SMT_237989401_B" phases=3 bus1="MT3667687540229842IT05.1.2.3" bus2="MT3667672340229602IT05.1.2.3" linecode="185AX3MT5AZN1_3" length=0.00292907 units=km
New "Line.SMT_1762871_F" phases=3 bus1="MT3674115640186639IT05.1.2.3.4" bus2="MT3673773140187179IT05.1.2.3.4" linecode="70AX3MT5AZN1_3" length=0.03574786 units=km
New "Line.SMT_3243950_F" phases=3 bus1="MT3667061140330786IT05.1.2.3" bus2="MT3666751140330487IT05.1.2.3" linecode="1/0AN3MT1_3" length=0.03210946 units=km
New "Line.SMT_141220835_F" phases=3 bus1="MT3660294340379206IT05.1.2.3.4" bus2="MT3660135840378279IT05.1.2.3.4" linecode="70AX3MT5AZN1_3" length=0.01893122 units=km
New "Line.SMT_2672621_F" phases=3 bus1="MT362870240398987IT05.1.2.3" bus2="MT362814240392587IT05.1.2.3" linecode="3X500CXMT3MT1_3" length=0.08767727 units=km
New "Line.SMT_27003693_B" phases=3 bus1="MT3666679540362619IT05.1.2.3" bus2="MT366665840362568IT05.1.2.3" linecode="1/0AN3MT1_3" length=0.00227851 units=km
New "Line.SMT_140560470_B" phases=3 bus1="MT3632027340424581IT05.1.2.3" bus2="MT3633038740426374IT05.1.2.3" linecode="240CEMT3MT1_3" length=0.10590123 units=km
New "Line.SMT_27027376_B" phases=3 bus1="MT3675544240341978IT05.1.2.3" bus2="MT3675543240341989IT05.1.2.3" linecode="336AN3MT1_3" length=0.00015362 units=km
New "Line.SMT_80615923_F" phases=3 bus1="MT367228240170748IT05.1.2.3.4" bus2="MT3672202540170847IT05.1.2.3.4" linecode="70AX3MT5AZN1_3" length=0.00825934 units=km
New "Line.SMT_30316164_B" phases=3 bus1="MT3663298840333989IT05.1.2.3" bus2="MT366349394033342IT05.1.2.3" linecode="1/0AN3MT1_3" length=0.02095301 units=km
New "Line.SMT_3045874_F" phases=3 bus1="MT3665289740353484IT05.1.2.3" bus2="MT36649840352403IT05.1.2.3" linecode="1/0AN3MT1_3" length=0.03381886 units=km
New "Line.SMT_27015838_B" phases=3 bus1="MT3669722740362197IT05.1.2.3" bus2="MT3669722540362182IT05.1.2.3" linecode="1/0AN3MT1/0AN1_3" length=0.00015568 units=km
New "Line.SMT_29752333_F" phases=3 bus1="MT3675373840166086IT05.1.2.3" bus2="MT3675659840165551IT05.1.2.3" linecode="1/0AN3MT1_3" length=0.02999798 units=km
New "Line.SMT_270041919_F" phases=3 bus1="MT3633637840428067IT05.1.2.3.4" bus2="MT3633960840429767IT05.1.2.3.4" linecode="3X240120AX3MT3X2401_3" length=0.03763253 units=km
New "Line.SMT_2486548_B" phases=3 bus1="MT366942864033444IT05.1.2.3" bus2="MT366940740332251IT05.1.2.3" linecode="1/0AN3MT1_3" length=0.02267788 units=km
New "Line.SMT_330419831_F" phases=3 bus1="MT3637972940405215IT05.1.2.3.4" bus2="MT363820394040189IT05.1.2.3.4" linecode="185AX3MT5AZN1_3" length=0.04174210 units=km
New "Line.SMT_27016048_B" phases=3 bus1="MT3673670740232039IT05.1.2.3" bus2="MT3673670640232054IT05.1.2.3" linecode="1/0AN3MT1_3" length=0.00015465 units=km
New "Line.SMT_30887181_F" phases=3 bus1="MT3663400640350735IT05.1.2.3" bus2="MT366335140347684IT05.1.2.3" linecode="1/0AN3MT1_3" length=0.03186924 units=km
New "Line.SMT_3205222_B" phases=3 bus1="MT3669567340347268IT05.1.2.3" bus2="MT3669549140345501IT05.1.2.3" linecode="1/0AN3MT1_3" length=0.01831365 units=km
New "Line.SMT_315726850_B" phases=3 bus1="MT3662777840359439IT05.1.2.3" bus2="MT366316834035868IT05.1.2.3" linecode="185AX3MT6AZN1_3" length=0.04101421 units=km
New "Line.SMT_1793401_F" phases=3 bus1="MT3675655140153568IT05.1.2.3.4" bus2="MT3675652140152587IT05.1.2.3.4" linecode="1/0AN3MT1/0AN1_3" length=0.01011927 units=km
New "Line.SMT_306003365_F" phases=3 bus1="MT3669766440363252IT05.1.2.3.4" bus2="MT3669737840362601IT05.1.2.3.4" linecode="1/0AN3MT1/0AN1_3" length=0.00733144 units=km
New "Line.SMT_1760471_F" phases=3 bus1="MT3674086240198544IT05.1.2.3" bus2="MT3674293840198186IT05.1.2.3" linecode="1/0AN3MT1_3" length=0.02171905 units=km
New "Line.SMT_2291786_F" phases=3 bus1="MT3674212140268587IT05.1.2.3.4" bus2="MT367387340269487IT05.1.2.3.4" linecode="185AX3MT6AZN1_3" length=0.03617160 units=km
New "Line.SMT_3109713_F" phases=3 bus1="MT3666939240339983IT05.1.2.3" bus2="MT366727940341082IT05.1.2.3" linecode="1/0AN3MT1_3" length=0.03682010 units=km
New "Line.SMT_309365335_B" phases=3 bus1="MT3659973640390537IT05.1.2.3" bus2="MT3659975140390534IT05.1.2.3" linecode="185AX3MT5AZN1_3" length=0.00015774 units=km
New "Line.SMT_330095499_F" phases=3 bus1="MT3656181940364282IT05.1.2.3.4" bus2="MT3656537140365603IT05.1.2.3.4" linecode="185AX3MT6AZN1_3" length=0.03907181 units=km
New "Line.SMT_2556738_F" phases=3 bus1="MT3627450940402554IT05.1.2.3.4" bus2="MT3627449540402535IT05.1.2.3.4" linecode="3X240120AX3MT3X2401_3" length=0.00024332 units=km
New "Line.SMT_28810160_B" phases=3 bus1="MT3674909840235051IT05.1.2.3" bus2="MT3674912140230195IT05.1.2.3" linecode="185AX3MT5AZN1_3" length=0.05006639 units=km
New "Line.SMT_33097872_B" phases=3 bus1="MT367468064022929IT05.1.2.3" bus2="MT3674283740230086IT05.1.2.3" linecode="1/0AN3MT1_3" length=0.04173488 units=km
New "Line.SMT_330498539_F" phases=3 bus1="MT36471624033288IT05.1.2.3.4" bus2="MT364720740333051IT05.1.2.3.4" linecode="185AX3MT5AZN1_3" length=0.00496323 units=km
New "Line.SMT_142555439_B" phases=3 bus1="MT3670702840259224IT05.1.2.3" bus2="MT367046540257258IT05.1.2.3" linecode="185AX3MT5AZN1_3" length=0.03181151 units=km
New "Line.SMT_41258813_F" phases=3 bus1="MT3672740840256466IT05.1.2.3.4" bus2="MT3672930140256192IT05.1.2.3.4" linecode="185AX3MT5AZN1_3" length=0.01971994 units=km
New "Line.SMT_80616412_F" phases=3 bus1="MT3672304340168981IT05.1.2.3.4" bus2="MT3672319640167369IT05.1.2.3.4" linecode="70AX3MT5AZN1_3" length=0.01669395 units=km
New "Line.SMT_29185574_F" phases=3 bus1="MT3675662140162589IT05.1.2.3" bus2="MT3675669740159552IT05.1.2.3" linecode="1/0AN3MT1_3" length=0.03132178 units=km
New "Line.SMT_1747137_F" phases=3 bus1="MT2999551ID.1.2.3.4" bus2="MT3666782140364195IT05.1.2.3.4" linecode="1/0AN3MT1/0AN1_3" length=0.01748576 units=km
New "Line.SMT_30700129_B" phases=3 bus1="MT3674517940155068IT05.1.2.3" bus2="MT367416840155577IT05.1.2.3" linecode="70AX3MT6AZN1_3" length=0.03645410 units=km
New "Line.SMT_141389729_F" phases=3 bus1="MT3669337740316007IT05.1.2.3.4" bus2="MT366906440314748IT05.1.2.3.4" linecode="70AX3MT5AZN1_3" length=0.03106094 units=km
New "Line.SMT_29374874_B" phases=3 bus1="MT367560754017028IT05.1.2.3" bus2="MT3675568240174258IT05.1.2.3" linecode="70AX3MT5AZN1_3" length=0.04121319 units=km
New "Line.SMT_312641137_F" phases=3 bus1="MT3668345740359664IT05.1.2.3" bus2="MT3668302240356198IT05.1.2.3" linecode="1/0AN3MT1_3" length=0.03601489 units=km
New "Line.SMT_27015839_B" phases=3 bus1="MT3669723740362281IT05.1.2.3" bus2="MT3669722740362197IT05.1.2.3" linecode="1/0AN3MT1/0AN1_3" length=0.00087223 units=km
New "Line.SMT_330498554_F" phases=3 bus1="MT3647378640333447IT05.1.2.3.4" bus2="MT3647389540333454IT05.1.2.3.4" linecode="185AX3MT5AZN1_3" length=0.00112585 units=km
New "Line.SMT_26992440_B" phases=3 bus1="MT3667058740358049IT05.1.2.3" bus2="MT366707940358083IT05.1.2.3" linecode="1/0AN3MT1_3" length=0.00212180 units=km
New "Line.SMT_139949856_B" phases=3 bus1="MT3658176140385503IT05.1.2.3" bus2="MT365830824038713IT05.1.2.3" linecode="185AX3MT5AZN1_3" length=0.02160770 units=km
New "Line.SMT_41258295_B" phases=3 bus1="MT367491840240968IT05.1.2.3" bus2="MT3674892140238189IT05.1.2.3" linecode="185AX3MT5AZN1_3" length=0.02877521 units=km
New "Line.SMT_28995789_B" phases=3 bus1="MT3666770440368243IT05.1.2.3" bus2="MT3666791240365988IT05.1.2.3" linecode="1/0AN3MT1_3" length=0.02334803 units=km
New "Line.SMT_27065329_B" phases=3 bus1="MT3665417540202621IT05.1.2.3" bus2="MT3665409840202586IT05.1.2.3" linecode="336AN3MT1_3" length=0.00087223 units=km
New "Line.SMT_330498425_F" phases=3 bus1="MT3646937640333322IT05.1.2.3.4" bus2="MT364697934033324IT05.1.2.3.4" linecode="185AX3MT5AZN1_3" length=0.00438175 units=km
New "Line.SMT_1913248_F" phases=3 bus1="MT3633096340426285IT05.1.2.3" bus2="MT3633097640426256IT05.1.2.3" linecode="336AN3MT1_3" length=0.00032786 units=km
New "Line.SMT_142555510_B" phases=3 bus1="MT3668084940234838IT05.1.2.3" bus2="MT3667895940233132IT05.1.2.3" linecode="185AX3MT5AZN1_3" length=0.02625029 units=km
New "Line.SMT_139925753_F" phases=3 bus1="MT125541098ID.1.2.3.4" bus2="MT365962144038658IT05.1.2.3.4" linecode="70AX3MT5AZN1_3" length=0.02721531 units=km
New "Line.SMT_330419851_F" phases=3 bus1="MT363979984037954IT05.1.2.3.4" bus2="MT3639982240377205IT05.1.2.3.4" linecode="185AX3MT5AZN1_3" length=0.03054853 units=km
New "Line.SMT_309524193_F" phases=3 bus1="MT319889347ID.1.2.3.4" bus2="MT367402214020349IT05.1.2.3.4" linecode="70AX3MT5AZN1_3" length=0.00103409 units=km
New "Line.SMT_270041913_F" phases=3 bus1="MT3636865740425164IT05.1.2.3.4" bus2="MT3637074340423417IT05.1.2.3.4" linecode="3X240120AX3MT3X2401_3" length=0.02805248 units=km
New "Line.SMT_28807722_B" phases=3 bus1="MT2983303ID.1.2.3" bus2="MT366632834036174IT05.1.2.3" linecode="1/0AN3MT1/0AN1_3" length=0.03488801 units=km
New "Line.SMT_31078423_F" phases=3 bus1="MT3675152340346114IT05.1.2.3.4" bus2="MT3675420840343282IT05.1.2.3.4" linecode="185AX3MT6AZN1_3" length=0.04023478 units=km
New "Line.SMT_80616413_F" phases=3 bus1="MT3672319640167369IT05.1.2.3.4" bus2="MT3672321140167215IT05.1.2.3.4" linecode="70AX3MT5AZN1_3" length=0.00159496 units=km
New "Line.SMT_222396464_B" phases=3 bus1="MT3673852140162797IT05.1.2.3" bus2="MT3673822240159902IT05.1.2.3" linecode="1/0AN3MT1_3" length=0.03000622 units=km
New "Line.SMT_28998337_F" phases=3 bus1="MT3676170540333441IT05.1.2.3" bus2="MT3676380740330137IT05.1.2.3" linecode="336AN3MT1_3" length=0.04037396 units=km
New "Line.SMT_29374029_F" phases=3 bus1="MT3672529140268282IT05.1.2.3.4" bus2="MT3672212140266887IT05.1.2.3.4" linecode="185AX3MT6AZN1_3" length=0.03570765 units=km
New "Line.SMT_142872129_B" phases=3 bus1="MT3671008540261425IT05.1.2.3" bus2="MT3670707240259255IT05.1.2.3" linecode="185AX3MT5AZN1_3" length=0.03828206 units=km
New "Line.SMT_30507002_F" phases=3 bus1="MT3667913240370732IT05.1.2.3.4" bus2="MT3668274740370612IT05.1.2.3.4" linecode="185AX3MT6AZN1_3" length=0.03729127 units=km
New "Line.SMT_31899479_F" phases=3 bus1="MT3649742740333932IT05.1.2.3.4" bus2="MT3650056940335457IT05.1.2.3.4" linecode="185AX3MT6AZN1_3" length=0.03600767 units=km
New "Line.SMT_31076851_F" phases=3 bus1="MT2994138ID.1.2.3" bus2="MT3668931840234212IT05.1.2.3" linecode="1/0AN3MT1_3" length=0.03621903 units=km
New "Line.SMT_30319364_F" phases=3 bus1="MT3675473540153886IT05.1.2.3" bus2="MT3675107240154273IT05.1.2.3" linecode="1/0AN3MT1_3" length=0.03797585 units=km
New "Line.SMT_30888419_F" phases=3 bus1="MT3667341140331086IT05.1.2.3" bus2="MT3667061140330786IT05.1.2.3" linecode="1/0AN3MT1_3" length=0.02903296 units=km
New "Line.SMT_143564473_F" phases=3 bus1="MT3669264940322306IT05.1.2.3.4" bus2="MT3668930440321604IT05.1.2.3.4" linecode="70AX3MT5AZN1_3" length=0.03523855 units=km
New "Line.SMT_41258467_F" phases=3 bus1="MT3672751140257154IT05.1.2.3.4" bus2="MT3672750740257127IT05.1.2.3.4" linecode="185AX3MT5AZN1_3" length=0.00028146 units=km
New "Line.SMT_31458375_F" phases=3 bus1="MT3677842240281198IT05.1.2.3" bus2="MT3677782240277201IT05.1.2.3" linecode="336AN3MT1_3" length=0.04167096 units=km
New "Line.SMT_27016049_B" phases=3 bus1="MT367367340231792IT05.1.2.3" bus2="MT3673670740232039IT05.1.2.3" linecode="1/0AN3MT1_3" length=0.00255791 units=km
New "Line.SMT_141389728_F" phases=3 bus1="MT366951940316964IT05.1.2.3.4" bus2="MT3669337740316007IT05.1.2.3.4" linecode="70AX3MT5AZN1_3" length=0.02113653 units=km
New "Line.SMT_30128957_F" phases=3 bus1="MT307408204ID.1.2.3" bus2="MT3666269840349884IT05.1.2.3" linecode="1/0AN3MT1_3" length=0.03603345 units=km
New "Line.SMT_28995412_B" phases=3 bus1="MT3665448740359524IT05.1.2.3" bus2="MT3665139740358684IT05.1.2.3" linecode="1/0AN3MT1_3" length=0.03301365 units=km
New "Line.SMT_30319365_F" phases=3 bus1="MT3675107240154273IT05.1.2.3" bus2="MT3674763440154786IT05.1.2.3" linecode="1/0AN3MT1_3" length=0.03583859 units=km
New "Line.SMT_143564484_F" phases=3 bus1="MT3668581740321301IT05.1.2.3.4" bus2="MT366823340320963IT05.1.2.3.4" linecode="70AX3MT5AZN1_3" length=0.03611902 units=km
New "Line.SMT_2400461_F" phases=3 bus1="MT366804340331857IT05.1.2.3" bus2="MT3668147340331979IT05.1.2.3" linecode="1/0AN3MT1_3" length=0.01082653 units=km
New "Line.SMT_29374458_B" phases=3 bus1="MT3673812402203IT05.1.2.3" bus2="MT3673862140216294IT05.1.2.3" linecode="1/0AN3MT1_3" length=0.04162353 units=km
New "Line.SMT_31259114_F" phases=3 bus1="MT3631573140422979IT05.1.2.3.4" bus2="MT3631725840423274IT05.1.2.3.4" linecode="3X240120AX3MT3X2401_3" length=0.01603411 units=km
New "Line.SMT_27011633_B" phases=3 bus1="MT3675560640341767IT05.1.2.3" bus2="MT367555984034178IT05.1.2.3" linecode="336AN3MT1_3" length=0.00015774 units=km
New "Line.SMT_222388467_F" phases=3 bus1="MT36737840168508IT05.1.2.3.4" bus2="MT3673402940169111IT05.1.2.3.4" linecode="70AX3MT5AZN1_3" length=0.03937286 units=km
New "Line.SMT_31457963_F" phases=3 bus1="MT3675869340255256IT05.1.2.3.4" bus2="MT3675639240257757IT05.1.2.3.4" linecode="185AX3MT6AZN1_3" length=0.03503854 units=km
New "Line.SMT_330419825_F" phases=3 bus1="MT3637480240414128IT05.1.2.3.4" bus2="MT363758344041213IT05.1.2.3.4" linecode="185AX3MT5AZN1_3" length=0.02318513 units=km
New "Line.SMT_222388438_F" phases=3 bus1="MT3672764440170005IT05.1.2.3.4" bus2="MT3672487540170476IT05.1.2.3.4" linecode="70AX3MT5AZN1_3" length=0.02895873 units=km
New "Line.SMT_329634909_F" phases=3 bus1="MT3650939240343355IT05.1.2.3" bus2="MT3650776740342588IT05.1.2.3" linecode="1/0AN3MT1_3" length=0.01852604 units=km
New "Line.SMT_142555507_B" phases=3 bus1="MT3667077540220699IT05.1.2.3" bus2="MT3666883440218163IT05.1.2.3" linecode="185AX3MT5AZN1_3" length=0.03292602 units=km
New "Line.SMT_41259940_F" phases=3 bus1="MT3670762140256687IT05.1.2.3.4" bus2="MT3670849840254463IT05.1.2.3.4" linecode="185AX3MT5AZN1_3" length=0.02464812 units=km
New "Line.SMT_315726835_B" phases=3 bus1="MT3662422940360872IT05.1.2.3" bus2="MT3662777840359439IT05.1.2.3" linecode="185AX3MT6AZN1_3" length=0.03946049 units=km
New "Line.SMT_2979644_F" phases=3 bus1="MT36689492403492IT05.1.2.3.4" bus2="MT3668986240352561IT05.1.2.3.4" linecode="70AX3MT5AZN1_3" length=0.03486120 units=km
New "Line.SMT_332099633_F" phases=3 bus1="MT3669819340363337IT05.1.2.3.4" bus2="MT3670130540360836IT05.1.2.3.4" linecode="185AX3MT6AZN1_3" length=0.04116164 units=km
New "Line.SMT_284983913_B" phases=3 bus1="MT3673984240206484IT05.1.2.3" bus2="MT3674002240204704IT05.1.2.3" linecode="70AX3MT5AZN1_3" length=0.01844562 units=km
...
