examples/feeders/RITQ1305/DU_1_CargasMT_391_ITQ_RITQ1305.dss
! DU_1_CargasMT_391_ITQ_RITQ1305
New "Load.MT_292480b801d64c5a11a1636f47961d88c0c2c5bf39e141f845b9bc0a915e05dd_M1" bus1="MT3675186640228483IT05.1.2.3" phases=3 conn=Delta model=2 kv=13.8 kw=430.9200134 pf=0.92 daily="MT-TIPO6_DU" status=variable vmaxpu=1.5 vminpu=0.93
New "Load.MT_292480b801d64c5a11a1636f47961d88c0c2c5bf39e141f845b9bc0a915e05dd_M2" bus1="MT3675186640228483IT05.1.2.3" phases=3 conn=Delta model=3 kv=13.8 kw=430.9200134 pf=0.92 daily="MT-TIPO6_DU" status=variable vmaxpu=1.5 vminpu=0.93
New "Load.MT_525434b266fc43f1656d936fdf8801978b147fad74d0db2cd6421597a00aad65_M1" bus1="MT3675186640228483IT05.1.2.3" phases=3 conn=Delta model=2 kv=13.8 kw=21.5600000 pf=0.92 daily="MT-TIPO10_DU" status=variable vmaxpu=1.5 vminpu=0.93
New "Load.MT_525434b266fc43f1656d936fdf8801978b147fad74d0db2cd6421597a00aad65_M2" bus1="MT3675186640228483IT05.1.2.3" phases=3 conn=Delta model=3 kv=13.8 kw=21.5600000 pf=0.92 daily="MT-TIPO10_DU" status=variable vmaxpu=1.5 vminpu=0.93
New "Load.MT_7089a5f7246287d4c528c37d930c4c4d4e6e2d376fac379080b229207af8472c_M1" bus1="MT3675186640228483IT05.1.2.3" phases=3 conn=Delta model=2 kv=13.8 kw=211.0500000 pf=0.92 daily="MT-TIPO1_DU" status=variable vmaxpu=1.5 vminpu=0.93
New "Load.MT_7089a5f7246287d4c528c37d930c4c4d4e6e2d376fac379080b229207af8472c_M2" bus1="MT3675186640228483IT05.1.2.3" phases=3 conn=Delta model=3 kv=13.8 kw=211.0500000 pf=0.92 daily="MT-TIPO1_DU" status=variable vmaxpu=1.5 vminpu=0.93
New "Load.MT_89a702e681f79ffb93d9c4c61ca32d5eccb880920daa424e9735c809d6d12de0_M1" bus1="MT3675186640228483IT05.1.2.3" phases=3 conn=Delta model=2 kv=13.8 kw=22.0500000 pf=0.92 daily="MT-TIPO6_DU" status=variable vmaxpu=1.5 vminpu=0.93
New "Load.MT_89a702e681f79ffb93d9c4c61ca32d5eccb880920daa424e9735c809d6d12de0_M2" bus1="MT3675186640228483IT05.1.2.3" phases=3 conn=Delta model=3 kv=13.8 kw=22.0500000 pf=0.92 daily="MT-TIPO6_DU" status=variable vmaxpu=1.5 vminpu=0.93
New "Load.MT_ad056ae446aadb0b0e0f1b1eea89ed84be6f7ab52f39296558930d43483c32a1_M1" bus1="MT3675186640228483IT05.1.2.3" phases=3 conn=Delta model=2 kv=13.8 kw=1.4700000 pf=0.92 daily="MT-TIPO6_DU" status=variable vmaxpu=1.5 vminpu=0.93
New "Load.MT_ad056ae446aadb0b0e0f1b1eea89ed84be6f7ab52f39296558930d43483c32a1_M2" bus1="MT3675186640228483IT05.1.2.3" phases=3 conn=Delta model=3 kv=13.8 kw=1.4700000 pf=0.92 daily="MT-TIPO6_DU" status=variable vmaxpu=1.5 vminpu=0.93
New "Load.MT_c49fad9379ba9262f816dbef841bff1445d9f314c93bb34f085e0fe7d1bb7db9_M1" bus1="MT3675186640228483IT05.1.2.3" phases=3 conn=Delta model=2 kv=13.8 kw=75.0400000 pf=0.92 daily="MT-TIPO10_DU" status=variable vmaxpu=1.5 vminpu=0.93
New "Load.MT_c49fad9379ba9262f816dbef841bff1445d9f314c93bb34f085e0fe7d1bb7db9_M2" bus1="MT3675186640228483IT05.1.2.3" phases=3 conn=Delta model=3 kv=13.8 kw=75.0400000 pf=0.92 daily="MT-TIPO10_DU" status=variable vmaxpu=1.5 vminpu=0.93
New "Load.MT_e8164b118b3865248cb1a6c8ed25cc265268bd9d35263a490a672932113b334c_M1" bus1="MT3675186640228483IT05.1.2.3" phases=3 conn=Delta model=2 kv=13.8 kw=42.4620000 pf=0.92 daily="MT-TIPO6_DU" status=variable vmaxpu=1.5 vminpu=0.93
New "Load.MT_e8164b118b3865248cb1a6c8ed25cc265268bd9d35263a490a672932113b334c_M2" bus1="MT3675186640228483IT05.1.2.3" phases=3 conn=Delta model=3 kv=13.8 kw=42.4620000 pf=0.92 daily="MT-TIPO6_DU" status=variable vmaxpu=1.5 vminpu=0.93
